Version 4
SHEET 1 2724 1564
WIRE 832 416 832 400
WIRE 624 464 608 464
WIRE 1168 464 1136 464
WIRE -256 496 -272 496
WIRE -64 496 -192 496
WIRE 2048 512 2048 480
WIRE 432 528 368 528
WIRE 1648 560 1616 560
WIRE 1760 560 1712 560
WIRE 1856 560 1824 560
WIRE 1984 560 1936 560
WIRE -64 576 -64 496
WIRE -64 576 -96 576
WIRE 288 576 288 528
WIRE 288 576 128 576
WIRE 1616 608 1616 560
WIRE 1616 608 1584 608
WIRE 928 624 864 624
WIRE 944 624 928 624
WIRE 1056 624 1056 464
WIRE 1056 624 1024 624
WIRE 1072 624 1056 624
WIRE 2048 624 2048 608
WIRE 2208 624 2048 624
WIRE 1168 640 1168 464
WIRE 1168 640 1136 640
WIRE 1248 640 1168 640
WIRE 1616 656 1584 656
WIRE 2048 656 2048 624
WIRE 2208 656 2208 624
WIRE 288 672 288 576
WIRE 288 672 208 672
WIRE 304 672 288 672
WIRE 432 688 432 528
WIRE 432 688 368 688
WIRE 448 688 432 688
WIRE -320 704 -336 704
WIRE -272 704 -272 496
WIRE -272 704 -320 704
WIRE -176 704 -176 576
WIRE -176 704 -208 704
WIRE -160 704 -176 704
WIRE 208 704 208 672
WIRE 208 704 128 704
WIRE 1616 704 1616 656
WIRE 1648 704 1616 704
WIRE 1760 704 1712 704
WIRE 1856 704 1824 704
WIRE 1984 704 1936 704
WIRE -320 720 -320 704
WIRE -64 720 -64 576
WIRE -64 720 -96 720
WIRE -48 720 -64 720
WIRE 928 768 928 624
WIRE 1264 768 928 768
WIRE 2208 768 2208 736
WIRE 2048 784 2048 752
WIRE -256 864 -272 864
WIRE -64 864 -192 864
WIRE 544 880 16 880
WIRE 2208 896 2208 848
WIRE 2048 912 2048 880
WIRE 240 928 192 928
WIRE 544 928 544 880
WIRE -64 944 -64 864
WIRE -64 944 -96 944
WIRE 1008 944 1008 912
WIRE 1008 944 928 944
WIRE 1040 944 1008 944
WIRE 1648 960 1616 960
WIRE 1760 960 1712 960
WIRE 1856 960 1824 960
WIRE 1984 960 1936 960
WIRE 1616 1008 1616 960
WIRE 1616 1008 1584 1008
WIRE 2048 1024 2048 1008
WIRE 2208 1024 2208 976
WIRE 2208 1024 2048 1024
WIRE 16 1056 16 880
WIRE 128 1056 128 928
WIRE 128 1056 96 1056
WIRE 144 1056 128 1056
WIRE 544 1056 544 928
WIRE 592 1056 544 1056
WIRE 624 1056 592 1056
WIRE 1616 1056 1584 1056
WIRE 2048 1056 2048 1024
WIRE -320 1072 -336 1072
WIRE -272 1072 -272 864
WIRE -272 1072 -320 1072
WIRE -176 1072 -176 944
WIRE -176 1072 -208 1072
WIRE -160 1072 -176 1072
WIRE 240 1072 240 928
WIRE 240 1072 208 1072
WIRE 320 1072 240 1072
WIRE 352 1072 320 1072
WIRE 464 1072 464 928
WIRE 464 1072 432 1072
WIRE 480 1072 464 1072
WIRE -320 1088 -320 1072
WIRE -64 1088 -64 944
WIRE -64 1088 -96 1088
WIRE -48 1088 -64 1088
WIRE 1616 1104 1616 1056
WIRE 1648 1104 1616 1104
WIRE 1760 1104 1712 1104
WIRE 1856 1104 1824 1104
WIRE 1984 1104 1936 1104
WIRE 1008 1184 1008 1120
WIRE 1008 1184 944 1184
WIRE 1040 1184 1008 1184
WIRE 2048 1184 2048 1152
FLAG 448 464 0
FLAG 704 464 0
FLAG 176 1104 0
FLAG 512 1088 0
FLAG 528 464 Vdd
FLAG 176 1040 Vdd
FLAG 512 1024 Vdd
FLAG 144 1088 Vcm
FLAG 480 1040 Vcm
FLAG 624 464 Vcm
FLAG 592 976 Vdd
FLAG 864 928 Vramp
FLAG 880 1168 Vramp
FLAG 1104 608 Vdd
FLAG 896 912 Vdd
FLAG 912 1152 Vdd
FLAG 1104 672 0
FLAG 896 976 0
FLAG 912 1216 0
FLAG 864 960 Vin
FLAG 880 1200 Vin-
FLAG 832 496 0
FLAG 1072 656 Vcm
FLAG 1264 768 Vin
FLAG 1248 640 Vin-
FLAG 1008 832 Vdd
FLAG 1008 1040 Vdd
FLAG 320 1072 Vramp
FLAG 1040 944 V_pwm_P
FLAG 1040 1184 V_pwm_N
FLAG 2048 784 0
FLAG 2048 480 Vdd
FLAG 1456 656 Vdd
FLAG 1456 608 V_pwm_P
FLAG 2048 1184 0
FLAG 2048 880 Vdd
FLAG 1456 1056 Vdd
FLAG 1456 1008 V_pwm_N
FLAG -320 800 0
FLAG -128 752 0
FLAG -128 688 Vdd
FLAG -416 704 Vin
FLAG -160 736 Vcm
FLAG -320 1168 0
FLAG -128 1120 0
FLAG -128 1056 Vdd
FLAG -416 1072 Vin
FLAG -160 1104 Vcm
FLAG -48 720 V1
FLAG -48 1088 V2
FLAG 304 704 Vcm
FLAG 48 576 V1
FLAG 48 704 V2
FLAG 832 400 Vin
FLAG 448 688 Vout_adder
FLAG 800 624 Vout_adder
FLAG 336 656 Vdd
FLAG 336 720 0
SYMBOL OpAmps\\opamp2 512 992 R0
SYMATTR InstName U2
SYMATTR Value LM339
SYMBOL cap 192 912 R90
WINDOW 0 0 32 VBottom 2
WINDOW 3 32 32 VTop 2
SYMATTR InstName C1
SYMATTR Value 500p
SYMBOL res 112 1040 R90
WINDOW 0 0 56 VBottom 2
WINDOW 3 32 56 VTop 2
SYMATTR InstName R1
SYMATTR Value 470k
SYMBOL res 560 912 R90
WINDOW 0 0 56 VBottom 2
WINDOW 3 32 56 VTop 2
SYMATTR InstName R3
SYMATTR Value 10k
SYMBOL res 448 1056 R90
WINDOW 0 0 56 VBottom 2
WINDOW 3 32 56 VTop 2
SYMATTR InstName R2
SYMATTR Value 2.2k
SYMBOL res 624 448 R90
WINDOW 0 0 56 VBottom 2
WINDOW 3 32 56 VTop 2
SYMATTR InstName R4
SYMATTR Value 1k
SYMBOL res 720 448 R90
WINDOW 0 0 56 VBottom 2
WINDOW 3 32 56 VTop 2
SYMATTR InstName R5
SYMATTR Value 1k
SYMBOL voltage 544 464 R90
WINDOW 0 -32 56 VBottom 2
WINDOW 3 32 56 VTop 2
WINDOW 123 0 0 Left 0
WINDOW 39 0 0 Left 0
SYMATTR InstName V1
SYMATTR Value 5
SYMBOL OpAmps\\AD8648 176 1008 R0
SYMATTR InstName U1
SYMBOL res 576 960 R0
SYMATTR InstName R6
SYMATTR Value 1K
SYMBOL OpAmps\\opamp2 896 880 R0
SYMATTR InstName U4
SYMATTR Value LM339
SYMBOL OpAmps\\opamp2 912 1120 R0
SYMATTR InstName U5
SYMATTR Value LM339
SYMBOL res 1040 608 R90
WINDOW 0 0 56 VBottom 2
WINDOW 3 32 56 VTop 2
SYMATTR InstName R7
SYMATTR Value 1k
SYMBOL res 1152 448 R90
WINDOW 0 0 56 VBottom 2
WINDOW 3 32 56 VTop 2
SYMATTR InstName R8
SYMATTR Value 1k
SYMBOL res 1024 928 R180
WINDOW 0 36 76 Left 2
WINDOW 3 36 40 Left 2
SYMATTR InstName R9
SYMATTR Value 10k
SYMBOL res 1024 1136 R180
WINDOW 0 36 76 Left 2
WINDOW 3 36 40 Left 2
SYMATTR InstName R10
SYMATTR Value 10k
SYMBOL cap 864 608 R90
WINDOW 0 0 32 VBottom 2
WINDOW 3 32 32 VTop 2
SYMATTR InstName C2
SYMATTR Value 0.05m
SYMBOL voltage 832 400 R0
WINDOW 0 -39 16 Left 2
WINDOW 3 -66 126 Left 2
WINDOW 123 -66 154 Left 2
WINDOW 39 0 0 Left 0
SYMATTR InstName V2
SYMATTR Value SINE(2.5 1 45)
SYMATTR Value2 AC 1
SYMBOL OpAmps\\AD8648 1104 576 R0
SYMATTR InstName U3
SYMBOL Digital\\inv 1648 496 R0
SYMATTR InstName A1
SYMBOL Digital\\inv 1760 496 R0
SYMATTR InstName A2
SYMBOL pnp 1984 608 M180
SYMATTR InstName Q1
SYMBOL npn 1984 656 R0
SYMATTR InstName Q2
SYMBOL Digital\\inv 1648 640 R0
SYMATTR InstName A3
SYMBOL Digital\\inv 1760 640 R0
SYMATTR InstName A4
SYMBOL res 1952 544 R90
WINDOW 0 0 56 VBottom 2
WINDOW 3 32 56 VTop 2
SYMATTR InstName R11
SYMATTR Value 1k
SYMBOL res 1952 688 R90
WINDOW 0 0 56 VBottom 2
WINDOW 3 32 56 VTop 2
SYMATTR InstName R12
SYMATTR Value 1k
SYMBOL Digital\\non_overlap_generator 1520 608 R0
SYMATTR InstName U6
SYMBOL Digital\\inv 1648 896 R0
SYMATTR InstName A5
SYMBOL Digital\\inv 1760 896 R0
SYMATTR InstName A6
SYMBOL pnp 1984 1008 M180
SYMATTR InstName Q3
SYMBOL npn 1984 1056 R0
SYMATTR InstName Q4
SYMBOL Digital\\inv 1648 1040 R0
SYMATTR InstName A7
SYMBOL Digital\\inv 1760 1040 R0
SYMATTR InstName A8
SYMBOL res 1952 944 R90
WINDOW 0 0 56 VBottom 2
WINDOW 3 32 56 VTop 2
SYMATTR InstName R13
SYMATTR Value 1k
SYMBOL res 1952 1088 R90
WINDOW 0 0 56 VBottom 2
WINDOW 3 32 56 VTop 2
SYMATTR InstName R14
SYMATTR Value 1k
SYMBOL Digital\\non_overlap_generator 1520 1008 R0
SYMATTR InstName U7
SYMBOL res 2192 640 R0
SYMATTR InstName R15
SYMATTR Value 16
SYMBOL res 2192 880 R0
SYMATTR InstName R16
SYMATTR Value 16
SYMBOL ind 2192 752 R0
SYMATTR InstName L1
SYMATTR Value 2m
SYMBOL OpAmps\\AD8648 -128 656 R0
SYMATTR InstName U8
SYMBOL cap -208 688 R90
WINDOW 0 0 32 VBottom 2
WINDOW 3 32 32 VTop 2
SYMATTR InstName C3
SYMATTR Value 1µ
SYMBOL cap -192 480 R90
WINDOW 0 0 32 VBottom 2
WINDOW 3 32 32 VTop 2
SYMATTR InstName C4
SYMATTR Value 1µ
SYMBOL res -336 704 R0
SYMATTR InstName R17
SYMATTR Value 50
SYMBOL res -320 688 R90
WINDOW 0 0 56 VBottom 2
WINDOW 3 32 56 VTop 2
SYMATTR InstName R18
SYMATTR Value 10k
SYMBOL res -80 560 R90
WINDOW 0 0 56 VBottom 2
WINDOW 3 32 56 VTop 2
SYMATTR InstName R19
SYMATTR Value 22k
SYMBOL OpAmps\\AD8648 -128 1024 R0
SYMATTR InstName U9
SYMBOL cap -208 1056 R90
WINDOW 0 0 32 VBottom 2
WINDOW 3 32 32 VTop 2
SYMATTR InstName C5
SYMATTR Value 100n
SYMBOL cap -192 848 R90
WINDOW 0 0 32 VBottom 2
WINDOW 3 32 32 VTop 2
SYMATTR InstName C6
SYMATTR Value 100n
SYMBOL res -336 1072 R0
SYMATTR InstName R22
SYMATTR Value 120
SYMBOL res -320 1056 R90
WINDOW 0 0 56 VBottom 2
WINDOW 3 32 56 VTop 2
SYMATTR InstName R23
SYMATTR Value 22k
SYMBOL res -80 928 R90
WINDOW 0 0 56 VBottom 2
WINDOW 3 32 56 VTop 2
SYMATTR InstName R24
SYMATTR Value 47k
SYMBOL OpAmps\\AD8648 336 624 R0
SYMATTR InstName U10
SYMBOL res 384 512 R90
WINDOW 0 0 56 VBottom 2
WINDOW 3 32 56 VTop 2
SYMATTR InstName R20
SYMATTR Value 1k
SYMBOL res 144 560 R90
WINDOW 0 0 56 VBottom 2
WINDOW 3 32 56 VTop 2
SYMATTR InstName R21
SYMATTR Value 1k
SYMBOL res 144 688 R90
WINDOW 0 0 56 VBottom 2
WINDOW 3 32 56 VTop 2
SYMATTR InstName R25
SYMATTR Value 1k
TEXT -296 1368 Left 2 !.lib LM339.lib
TEXT 1344 1280 Left 2 ;Prathamesh Pise\n23F3000625
TEXT -304 1408 Left 2 !.include "C:\\Users\\prath\\AppData\\Local\\LTspice\\lib\\sub\\non_overlap_generator.lib"
TEXT -280 1312 Left 2 ;.tran 50ms
TEXT -56 392 Left 2 !.ac dec 100 10 5000
